@<TRIPOS>MOLECULE
1ai7_ligand
   13    13     1     0     0
SMALL
bcc


@<TRIPOS>ATOM
      1 C1          10.0120    35.4330    32.6350 ca         1 IPH       0.123100
      2 C2          10.5500    36.4840    31.8960 ca         1 IPH      -0.185000
      3 C3          11.6400    37.0940    32.4870 ca         1 IPH      -0.094500
      4 C4          12.1260    36.7140    33.7230 ca         1 IPH      -0.166000
      5 C5          11.5350    35.6690    34.4060 ca         1 IPH      -0.094500
      6 C6          10.4420    35.0130    33.9000 ca         1 IPH      -0.185000
      7 O1           8.9550    34.7450    32.0780 oh         1 IPH      -0.499100
      8 H1          10.1480    36.7970    30.9390 ha         1 IPH       0.141500
      9 H2          12.1330    37.9030    31.9600 ha         1 IPH       0.133000
     10 H3          12.9710    37.2360    34.1570 ha         1 IPH       0.133000
     11 H4          11.9440    35.3610    35.3620 ha         1 IPH       0.133000
     12 H5           9.9430    34.2200    34.4450 ha         1 IPH       0.141500
     13 H6           8.7520    35.1140    31.2270 ho         1 IPH       0.418000
@<TRIPOS>BOND
     1     1     7 1   
     2     1     6 ar  
     3     1     2 ar  
     4     2     3 ar  
     5     3     4 ar  
     6     4     5 ar  
     7     5     6 ar  
     8     2     8 1   
     9     3     9 1   
    10     4    10 1   
    11     5    11 1   
    12     6    12 1   
    13     7    13 1   
@<TRIPOS>SUBSTRUCTURE
     1 IPH         1 TEMP              0 ****  ****    0 ROOT
