@<TRIPOS>MOLECULE
1ajp_ligand
   19    19     1     0     0
SMALL
bcc


@<TRIPOS>ATOM
      1 C1          13.5720    37.5200    36.1010 c          1 OMD       0.918600
      2 C2          13.0180    36.1080    35.8570 c3         1 OMD      -0.178100
      3 C1'         11.9820    36.0200    34.7630 ca         1 OMD      -0.053300
      4 C2'         12.0720    36.8510    33.6510 ca         1 OMD      -0.162000
      5 C3'         11.1100    36.7580    32.6730 ca         1 OMD       0.074100
      6 O3'         11.0650    37.5080    31.5210 oh         1 OMD      -0.525100
      7 C4'         10.0380    35.8730    32.7310 ca         1 OMD      -0.158000
      8 C5'          9.9510    35.0620    33.8310 ca         1 OMD      -0.148000
      9 C6'         10.9200    35.1270    34.8110 ca         1 OMD       0.066100
     10 O6'         10.7660    34.4250    35.6340 oh         1 OMD      -0.527100
     11 O1          14.4340    37.7030    36.9520 o          1 OMD      -0.838800
     12 O2          13.1420    38.5030    35.4930 o          1 OMD      -0.838800
     13 H1          12.5600    35.7530    36.7920 hc         1 OMD       0.038200
     14 H2          13.8580    35.4520    35.5870 hc         1 OMD       0.038200
     15 H3          12.8870    37.5600    33.5570 ha         1 OMD       0.198000
     16 H4          10.2560    38.0050    31.5000 ho         1 OMD       0.418000
     17 H5           9.3010    35.8270    31.9370 ha         1 OMD       0.128000
     18 H6           9.1220    34.3700    33.9320 ha         1 OMD       0.128000
     19 H7          11.4660    34.5240    36.2680 ho         1 OMD       0.422000
@<TRIPOS>BOND
     1     1    12 1   
     2     1    11 1   
     3     1     2 1   
     4     2     3 1   
     5     3     9 ar  
     6     3     4 ar  
     7     4     5 ar  
     8     5     7 ar  
     9     5     6 1   
    10     7     8 ar  
    11     8     9 ar  
    12     9    10 1   
    13     2    13 1   
    14     2    14 1   
    15     4    15 1   
    16     6    16 1   
    17     7    17 1   
    18     8    18 1   
    19    10    19 1   
@<TRIPOS>SUBSTRUCTURE
     1 OMD         1 TEMP              0 ****  ****    0 ROOT
