@<TRIPOS>MOLECULE
1e6s_ligand
   25    25     1     0     0
SMALL
bcc


@<TRIPOS>ATOM
      1 C1          46.8710   119.8910    52.8440 c2         1 GOX       0.478200
      2 N1          46.1800   119.1010    52.0130 n2         1 GOX      -0.470200
      3 O7          45.5120   119.5680    50.9830 oh         1 GOX      -0.363500
      4 C2          47.7520   119.2200    53.9100 c6         1 GOX       0.128800
      5 O2          47.1990   118.0540    54.5300 oh         1 GOX      -0.573800
      6 C3          48.2490   120.2590    54.8890 c6         1 GOX       0.118100
      7 O3          49.3470   119.6490    55.5640 oh         1 GOX      -0.590800
      8 C4          48.6480   121.5070    54.0620 c6         1 GOX       0.082100
      9 O4          49.2900   122.4630    54.9070 oh         1 GOX      -0.596800
     10 C5          47.3120   122.1730    53.5720 c6         1 GOX       0.120500
     11 N5          46.7140   121.2240    52.6400 nu         1 GOX      -0.794200
     12 C6          47.4060   123.4560    52.7730 c3         1 GOX       0.104400
     13 O6          48.1870   123.2780    51.5780 oh         1 GOX      -0.588800
     14 H1          45.0940   118.8480    50.5250 ho         1 GOX       0.444000
     15 H2          48.6420   118.8580    53.3740 h1         1 GOX       0.129700
     16 H3          46.3850   118.2830    54.9630 ho         1 GOX       0.411000
     17 H4          47.4670   120.5310    55.6140 h1         1 GOX       0.067700
     18 H5          49.7050   120.2580    56.1980 ho         1 GOX       0.418000
     19 H6          49.2960   121.2290    53.2180 h1         1 GOX       0.055700
     20 H7          49.5320   123.2250    54.3940 ho         1 GOX       0.408000
     21 H8          46.6650   122.3430    54.4450 h1         1 GOX       0.079700
     22 H9          46.1750   121.5640    51.8310 hn         1 GOX       0.414800
     23 H10         47.8770   124.2310    53.3950 h1         1 GOX       0.059700
     24 H11         46.3920   123.7770    52.4920 h1         1 GOX       0.059700
     25 H12         49.0660   123.0050    51.8130 ho         1 GOX       0.399000
@<TRIPOS>BOND
     1     1     2 2   
     2     1     4 1   
     3     1    11 1   
     4     2     3 1   
     5     4     5 1   
     6     4     6 1   
     7     6     7 1   
     8     6     8 1   
     9     8     9 1   
    10     8    10 1   
    11    10    11 1   
    12    10    12 1   
    13    12    13 1   
    14     3    14 1   
    15     4    15 1   
    16     5    16 1   
    17     6    17 1   
    18     7    18 1   
    19     8    19 1   
    20     9    20 1   
    21    10    21 1   
    22    11    22 1   
    23    12    23 1   
    24    12    24 1   
    25    13    25 1   
@<TRIPOS>SUBSTRUCTURE
     1 GOX         1 TEMP              0 ****  ****    0 ROOT
