@<TRIPOS>MOLECULE
1atr_ligand
   39    41     1     0     0
SMALL
bcc


@<TRIPOS>ATOM
      1 PB          17.6640    29.5160    16.4650 p5         1 ADP       1.507900
      2 O1B         17.3040    29.9120    17.8520 o          1 ADP      -0.769500
      3 O2B         18.7360    28.5200    16.4050 o          1 ADP      -0.769500
      4 O3B         16.4940    29.1230    15.6610 o          1 ADP      -0.769500
      5 PA          19.5220    31.4600    15.1380 p5         1 ADP       1.610800
      6 O1A         20.5160    30.3580    15.2030 o          1 ADP      -0.891000
      7 O2A         19.3000    32.1620    13.8450 o          1 ADP      -0.891000
      8 O3A         18.1510    30.9090    15.8280 os         1 ADP      -0.833800
      9 O5'         19.7630    32.5300    16.2290 os         1 ADP      -0.591200
     10 C5'         18.9980    33.6940    16.2380 c3         1 ADP       0.186400
     11 C4'         19.3640    34.5520    17.4210 c5         1 ADP       0.051100
     12 O4'         20.5810    35.1190    16.9730 os         1 ADP      -0.416600
     13 C3'         18.4780    35.7970    17.7970 c5         1 ADP       0.268100
     14 O3'         18.6370    35.9420    19.1990 oh         1 ADP      -0.997800
     15 C2'         19.1400    36.9210    17.0330 c5         1 ADP       0.029100
     16 O2'         18.9060    38.1850    17.6830 oh         1 ADP      -0.647800
     17 C1'         20.5930    36.4980    17.2240 c5         1 ADP       0.233800
     18 N9          21.4930    37.1880    16.2800 na         1 ADP      -0.243000
     19 C8          21.5360    37.3100    14.9100 cc         1 ADP       0.480700
     20 N7          22.4270    38.1730    14.4750 nd         1 ADP      -0.621100
     21 C5          23.0070    38.6320    15.6660 ca         1 ADP      -0.189200
     22 C6          24.0140    39.5520    15.8950 ca         1 ADP       0.650200
     23 N6          24.5300    40.1990    14.8540 nv         1 ADP      -0.915500
     24 N1          24.3810    39.7860    17.1730 nb         1 ADP      -0.808000
     25 C2          23.7640    39.1250    18.1310 ca         1 ADP       0.607900
     26 N3          22.7920    38.2290    18.0420 nb         1 ADP      -0.684000
     27 C4          22.4540    38.0330    16.7390 ca         1 ADP       0.418800
     28 H1          17.9330    33.4270    16.2990 h1         1 ADP       0.024200
     29 H2          19.1830    34.2570    15.3110 h1         1 ADP       0.024200
     30 H3          19.4870    33.9180    18.3120 h1         1 ADP       0.067700
     31 H4          17.4200    35.6810    17.5210 h1         1 ADP      -0.057300
     32 H5          18.1240    36.6830    19.5000 ho         1 ADP       0.423000
     33 H6          18.8350    36.9620    15.9770 h1         1 ADP       0.034700
     34 H7          17.9710    38.3500    17.7250 ho         1 ADP       0.430000
     35 H8          20.9220    36.7040    18.2530 h2         1 ADP       0.065700
     36 H9          20.8880    36.7410    14.2440 h5         1 ADP       0.194800
     37 H10         25.2810    40.8890    14.9970 hn         1 ADP       0.386300
     38 H11         24.1790    40.0100    13.9040 hn         1 ADP       0.386300
     39 H12         24.1000    39.3460    19.1380 h5         1 ADP       0.013100
@<TRIPOS>BOND
     1     1     2 1   
     2     1     3 1   
     3     1     4 1   
     4     8     1 1   
     5     5     6 1   
     6     5     7 1   
     7     5     8 1   
     8     5     9 1   
     9     9    10 1   
    10    10    11 1   
    11    11    12 1   
    12    11    13 1   
    13    12    17 1   
    14    13    14 1   
    15    13    15 1   
    16    15    16 1   
    17    15    17 1   
    18    17    18 1   
    19    18    19 1   
    20    18    27 1   
    21    19    20 2   
    22    20    21 1   
    23    21    22 ar  
    24    21    27 ar  
    25    22    23 1   
    26    22    24 ar  
    27    24    25 ar  
    28    25    26 ar  
    29    26    27 ar  
    30    10    28 1   
    31    10    29 1   
    32    11    30 1   
    33    13    31 1   
    34    14    32 1   
    35    15    33 1   
    36    16    34 1   
    37    17    35 1   
    38    19    36 1   
    39    23    37 1   
    40    23    38 1   
    41    25    39 1   
@<TRIPOS>SUBSTRUCTURE
     1 ADP         1 TEMP              0 ****  ****    0 ROOT
