@<TRIPOS>MOLECULE
1ai4_ligand
   19    19     1     0     0
SMALL
bcc


@<TRIPOS>ATOM
      1 C1          13.8060    37.7840    36.1770 c          1 DHY       0.917600
      2 C2          13.5920    36.3210    35.7700 c3         1 DHY      -0.173100
      3 C1'         12.4160    35.9970    34.8980 ca         1 DHY      -0.014300
      4 C2'         12.3640    36.6850    33.6940 ca         1 DHY      -0.162000
      5 C3'         11.3370    36.4780    32.8090 ca         1 DHY       0.030100
      6 O3'         11.0820    37.0600    31.5790 oh         1 DHY      -0.542100
      7 C4'         10.3460    35.5510    33.1180 ca         1 DHY       0.066100
      8 O4'          9.4350    35.4550    32.0850 oh         1 DHY      -0.519100
      9 C5'         10.3720    34.8500    34.3070 ca         1 DHY      -0.146000
     10 C6'         11.4240    35.0560    35.2000 ca         1 DHY      -0.152000
     11 O1          14.4450    38.0110    37.1970 o          1 DHY      -0.841800
     12 O2          13.2690    38.7890    35.7080 o          1 DHY      -0.841800
     13 H1          13.4830    35.7370    36.6960 hc         1 DHY       0.039200
     14 H2          14.4960    35.9950    35.2340 hc         1 DHY       0.039200
     15 H3          13.1460    37.3950    33.4500 ha         1 DHY       0.198000
     16 H4          11.0660    36.3870    30.9090 ho         1 DHY       0.428000
     17 H5           9.6740    36.0630    31.3960 ho         1 DHY       0.422000
     18 H6           9.5820    34.1460    34.5450 ha         1 DHY       0.128000
     19 H7          11.4730    34.4900    36.1230 ha         1 DHY       0.124000
@<TRIPOS>BOND
     1     1    12 1   
     2     1    11 1   
     3     1     2 1   
     4     2     3 1   
     5     3    10 ar  
     6     3     4 ar  
     7     4     5 ar  
     8     5     7 ar  
     9     5     6 1   
    10     7     9 ar  
    11     7     8 1   
    12     9    10 ar  
    13     2    13 1   
    14     2    14 1   
    15     4    15 1   
    16     6    16 1   
    17     8    17 1   
    18     9    18 1   
    19    10    19 1   
@<TRIPOS>SUBSTRUCTURE
     1 DHY         1 TEMP              0 ****  ****    0 ROOT
