@<TRIPOS>MOLECULE
1ajn_ligand
   19    19     1     0     0
SMALL
bcc


@<TRIPOS>ATOM
      1 C1          13.9920    37.8040    36.4180 c          1 AAN       0.923600
      2 C2          13.8720    36.3160    36.0350 c3         1 AAN      -0.200100
      3 C1'         12.8420    36.0860    34.9540 ca         1 AAN       0.044700
      4 C2'         13.0210    36.6710    33.7170 ca         1 AAN      -0.158500
      5 C3'         11.9730    36.5260    32.8230 ca         1 AAN      -0.072500
      6 C4'         10.8990    35.7310    33.1130 ca         1 AAN      -0.220200
      7 N4'         10.1470    35.5500    32.3480 no         1 AAN       0.317200
      8 O3'         10.4890    36.2740    31.1760 o          1 AAN      -0.245000
      9 O4'          9.0250    34.7280    32.6160 o          1 AAN      -0.245000
     10 C5'         10.7210    35.0520    34.3140 ca         1 AAN      -0.072500
     11 C6'         11.7420    35.2890    35.2320 ca         1 AAN      -0.158500
     12 O1          14.6010    38.1410    37.4320 o          1 AAN      -0.825800
     13 O2          13.5040    38.7610    35.8060 o          1 AAN      -0.825800
     14 H1          13.5820    35.7430    36.9280 hc         1 AAN       0.049700
     15 H2          14.8490    35.9630    35.6740 hc         1 AAN       0.049700
     16 H3          13.9260    37.2110    33.4610 ha         1 AAN       0.169500
     17 H4          12.0050    37.0530    31.8760 ha         1 AAN       0.149500
     18 H5           9.8750    34.4050    34.5150 ha         1 AAN       0.149500
     19 H6          11.6730    34.8280    36.2110 ha         1 AAN       0.169500
@<TRIPOS>BOND
     1     1    13 1   
     2     1    12 1   
     3     1     2 1   
     4     2     3 1   
     5     3    11 ar  
     6     3     4 ar  
     7     4     5 ar  
     8     5     6 ar  
     9     6    10 ar  
    10     6     7 1   
    11     7     9 1   
    12     7     8 1   
    13    10    11 ar  
    14     2    14 1   
    15     2    15 1   
    16     4    16 1   
    17     5    17 1   
    18    10    18 1   
    19    11    19 1   
@<TRIPOS>SUBSTRUCTURE
     1 AAN         1 TEMP              0 ****  ****    0 ROOT
