@<TRIPOS>MOLECULE
1ai5_ligand
   19    19     1     0     0
SMALL
bcc


@<TRIPOS>ATOM
      1 C1          14.0160    37.7680    36.3700 c          1 MNP       0.920600
      2 C2          13.9490    36.3240    35.8790 c3         1 MNP      -0.190100
      3 C1'         12.6700    35.9080    35.2370 ca         1 MNP      -0.018300
      4 C2'         12.4280    36.4610    34.0030 ca         1 MNP      -0.052000
      5 C3'         11.2590    36.0710    33.4050 ca         1 MNP      -0.180200
      6 N3'         10.9480    36.5440    32.1190 no         1 MNP       0.312200
      7 O3'          9.7150    35.9000    31.8610 o          1 MNP      -0.233000
      8 O4'         11.6460    37.4310    31.3120 o          1 MNP      -0.233000
      9 C4'         10.3140    35.1870    33.8960 ca         1 MNP      -0.111000
     10 C5'         10.5900    34.6320    35.1090 ca         1 MNP      -0.152000
     11 C6'         11.7540    35.0150    35.7910 ca         1 MNP      -0.117000
     12 O1          14.5840    37.9400    37.4320 o          1 MNP      -0.827800
     13 O2          13.5320    38.7810    35.9290 o          1 MNP      -0.827800
     14 H1          14.1200    35.6670    36.7440 hc         1 MNP       0.044700
     15 H2          14.7550    36.1810    35.1450 hc         1 MNP       0.044700
     16 H3          13.1140    37.1570    33.5350 ha         1 MNP       0.218000
     17 H4           9.4090    34.9510    33.3480 ha         1 MNP       0.147000
     18 H5           9.9170    33.9020    35.5430 ha         1 MNP       0.122000
     19 H6          11.9470    34.6050    36.7760 ha         1 MNP       0.134000
@<TRIPOS>BOND
     1     1    13 1   
     2     1    12 1   
     3     1     2 1   
     4     2     3 1   
     5     3    11 ar  
     6     3     4 ar  
     7     4     5 ar  
     8     5     9 ar  
     9     5     6 1   
    10     6     8 1   
    11     6     7 1   
    12     9    10 ar  
    13    10    11 ar  
    14     2    14 1   
    15     2    15 1   
    16     4    16 1   
    17     9    17 1   
    18    10    18 1   
    19    11    19 1   
@<TRIPOS>SUBSTRUCTURE
     1 MNP         1 TEMP              0 ****  ****    0 ROOT
