@<TRIPOS>MOLECULE
1bxr_ligand
   44    46     1     0     0
SMALL
bcc


@<TRIPOS>ATOM
      1 PG          20.7420    29.4160    71.6650 p5         1 ANP       1.340800
      2 O1G         21.5970    29.0350    70.4450 o          1 ANP      -0.967833
      3 O2G         21.4680    30.4410    72.4470 o          1 ANP      -0.967833
      4 O3G         20.5270    28.1650    72.6600 o          1 ANP      -0.967833
      5 PB          17.9740    29.1110    70.7120 p5         1 ANP       1.598700
      6 O1B         18.3140    28.3020    69.4830 o          1 ANP      -0.913500
      7 O2B         17.4090    28.2610    71.8170 o          1 ANP      -0.913500
      8 N3B         19.2880    29.9350    71.2370 n7         1 ANP      -0.969400
      9 PA          16.2510    31.3200    71.0760 p5         1 ANP       1.593800
     10 O1A         15.2010    30.8060    72.0270 o          1 ANP      -0.918000
     11 O2A         17.3890    31.9090    71.8580 o          1 ANP      -0.918000
     12 O3A         16.8310    30.1010    70.2470 os         1 ANP      -0.817800
     13 O5          15.6130    32.4080    70.0710 os         1 ANP      -0.612200
     14 C5          16.4020    32.8080    68.9130 c3         1 ANP       0.127400
     15 C4          16.2000    34.2750    68.5030 c5         1 ANP       0.072100
     16 O4          14.8860    34.4730    67.9180 os         1 ANP      -0.435600
     17 C3          16.3140    35.3230    69.6070 c5         1 ANP       0.088100
     18 O3          17.6850    35.6840    69.8610 oh         1 ANP      -0.669800
     19 C2          15.3520    36.4310    69.1340 c5         1 ANP       0.107100
     20 O2          16.0400    37.5370    68.5280 oh         1 ANP      -0.630800
     21 C1          14.4090    35.7560    68.1460 c5         1 ANP       0.222800
     22 N9          13.0470    35.6550    68.6980 na         1 ANP      -0.259000
     23 C8          12.5860    34.7950    69.6380 cc         1 ANP       0.488700
     24 N7          11.2790    34.9230    69.8850 nd         1 ANP      -0.606100
     25 C7          10.8660    35.9480    69.0720 ca         1 ANP      -0.186200
     26 C6           9.5790    36.5350    68.9260 ca         1 ANP       0.663200
     27 N6           8.5250    36.2230    69.5420 nv         1 ANP      -0.919500
     28 N1           9.6240    37.5490    68.0120 nb         1 ANP      -0.808000
     29 C10         10.7340    37.9740    67.3150 ca         1 ANP       0.616900
     30 N3          11.9220    37.4480    67.4500 nb         1 ANP      -0.708000
     31 C9          11.9430    36.4300    68.3430 ca         1 ANP       0.420800
     32 H1          19.1620    30.9250    71.3010 hn         1 ANP       0.362800
     33 H2          16.1200    32.1680    68.0640 h1         1 ANP       0.089200
     34 H3          17.4660    32.6570    69.1490 h1         1 ANP       0.089200
     35 H4          16.9660    34.5000    67.7460 h1         1 ANP       0.076700
     36 H5          15.9220    34.9080    70.5470 h1         1 ANP       0.159700
     37 H6          17.7170    36.3360    70.5510 ho         1 ANP       0.504000
     38 H7          14.7790    36.8100    69.9930 h1         1 ANP       0.063700
     39 H8          16.6390    37.9190    69.1580 ho         1 ANP       0.429000
     40 H9          14.3850    36.3270    67.2060 h2         1 ANP       0.079700
     41 H10         13.2200    34.0690    70.1440 h5         1 ANP       0.192800
     42 H11          7.6470    36.7250    69.3480 hn         1 ANP       0.394300
     43 H12          8.5410    35.4650    70.2400 hn         1 ANP       0.394300
     44 H13         10.6140    38.7920    66.6140 h5         1 ANP       0.013100
@<TRIPOS>BOND
     1     1     2 1   
     2     1     3 1   
     3     1     4 1   
     4     8     1 1   
     5     5     6 1   
     6     5     7 1   
     7     5     8 1   
     8    12     5 1   
     9     9    10 1   
    10     9    11 1   
    11     9    12 1   
    12     9    13 1   
    13    13    14 1   
    14    14    15 1   
    15    15    16 1   
    16    15    17 1   
    17    16    21 1   
    18    17    18 1   
    19    17    19 1   
    20    19    20 1   
    21    19    21 1   
    22    21    22 1   
    23    22    23 1   
    24    22    31 1   
    25    23    24 2   
    26    24    25 1   
    27    25    26 ar  
    28    25    31 ar  
    29    26    27 1   
    30    26    28 ar  
    31    28    29 ar  
    32    29    30 ar  
    33    30    31 ar  
    34     8    32 1   
    35    14    33 1   
    36    14    34 1   
    37    15    35 1   
    38    17    36 1   
    39    18    37 1   
    40    19    38 1   
    41    20    39 1   
    42    21    40 1   
    43    23    41 1   
    44    27    42 1   
    45    27    43 1   
    46    29    44 1   
@<TRIPOS>SUBSTRUCTURE
     1 ANP         1 TEMP              0 ****  ****    0 ROOT
