@<TRIPOS>MOLECULE
1gpn_ligand
   40    43     1     0     0
SMALL
bcc


@<TRIPOS>ATOM
      1 C1           1.0680    68.7710    61.1630 c          1 HUB       0.684700
      2 O1           0.4400    69.2080    60.1960 o          1 HUB      -0.568500
      3 N1           2.3530    68.2650    60.9830 ns         1 HUB      -0.435100
      4 C2           0.5440    68.7450    62.5170 cc         1 HUB      -0.216200
      5 C3           1.3020    68.2450    63.5450 cd         1 HUB      -0.068000
      6 C4           2.6350    67.7280    63.3560 cd         1 HUB      -0.292200
      7 C5           3.1490    67.7340    62.0130 cc         1 HUB       0.154400
      8 C6           4.5200    67.2110    61.6300 c6         1 HUB      -0.069200
      9 C7           5.3120    66.5280    62.8520 c6         1 HUB      -0.016500
     10 C8           4.8890    65.0460    63.0240 c2         1 HUB      -0.176200
     11 C9           5.1250    69.4560    65.4310 c6         1 HUB      -0.101400
     12 C10          5.4320    68.7380    64.1060 c6         1 HUB      -0.093400
     13 C11          5.0240    67.2560    64.1870 c6         1 HUB      -0.074700
     14 C12          3.5160    67.1410    64.5690 c6         1 HUB       0.241400
     15 N2           3.2390    67.8790    65.8580 ny         1 HUB      -0.765000
     16 C13          3.1120    65.6420    64.7490 c6         1 HUB      -0.062200
     17 C14          3.8870    64.6480    63.8920 c2         1 HUB      -0.093400
     18 C15          3.4650    63.2140    64.0870 c3         1 HUB      -0.068900
     19 C90          3.6510    69.3860    65.8010 c6         1 HUB       0.110800
     20 H1           2.7350    68.2800    60.0590 hn         1 HUB       0.349500
     21 H2          -0.4570    69.1250    62.7180 ha         1 HUB       0.185000
     22 H3           0.8780    68.2380    64.5480 ha         1 HUB       0.122000
     23 H4           5.1200    68.0520    61.2530 hc         1 HUB       0.089200
     24 H5           4.3970    66.4620    60.8340 hc         1 HUB       0.089200
     25 H6           6.3900    66.5760    62.6400 hc         1 HUB       0.092700
     26 H7           5.4020    64.2860    62.4370 ha         1 HUB       0.157000
     27 H8           5.4150    70.5130    65.3360 hc         1 HUB       0.085700
     28 H9           5.7130    68.9850    66.2330 hc         1 HUB       0.085700
     29 H10          4.8720    69.2240    63.2930 hc         1 HUB       0.076700
     30 H11          6.5100    68.8060    63.8990 hc         1 HUB       0.076700
     31 H12          5.6200    66.7750    64.9760 hc         1 HUB       0.076700
     32 H13          3.7550    67.4330    66.6000 hn         1 HUB       0.444300
     33 H14          2.2520    67.8230    66.0540 hn         1 HUB       0.444300
     34 H15          2.0450    65.5460    64.4990 hc         1 HUB       0.070200
     35 H16          3.2670    65.3730    65.8040 hc         1 HUB       0.070200
     36 H17          4.0680    62.5630    63.4370 hc         1 HUB       0.060700
     37 H18          2.4010    63.1060    63.8280 hc         1 HUB       0.060700
     38 H19          3.6180    62.9260    65.1380 hc         1 HUB       0.060700
     39 H20          3.0500    69.9090    65.0420 hx         1 HUB       0.107200
     40 H21          3.4900    69.8550    66.7830 hx         1 HUB       0.107200
@<TRIPOS>BOND
     1     4     1 1   
     2     1     3 1   
     3     1     2 2   
     4     3     7 1   
     5     7     8 1   
     6     7     6 2   
     7     6    14 1   
     8     6     5 1   
     9     5     4 2   
    10    14    16 1   
    11    14    15 1   
    12    14    13 1   
    13    13    12 1   
    14    13     9 1   
    15     9    10 1   
    16     9     8 1   
    17    10    17 2   
    18    17    18 1   
    19    16    17 1   
    20    12    11 1   
    21    11    19 1   
    22    19    15 1   
    23     3    20 1   
    24     4    21 1   
    25     5    22 1   
    26     8    23 1   
    27     8    24 1   
    28     9    25 1   
    29    10    26 1   
    30    11    27 1   
    31    11    28 1   
    32    12    29 1   
    33    12    30 1   
    34    13    31 1   
    35    15    32 1   
    36    15    33 1   
    37    16    34 1   
    38    16    35 1   
    39    18    36 1   
    40    18    37 1   
    41    18    38 1   
    42    19    39 1   
    43    19    40 1   
@<TRIPOS>SUBSTRUCTURE
     1 HUB         1 TEMP              0 ****  ****    0 ROOT
