@<TRIPOS>MOLECULE
1g98_ligand
   23    22     1     0     0
SMALL
bcc


@<TRIPOS>ATOM
      1 O1A         13.8520     9.7460    28.4480 o          1 PA5      -0.877300
      2 C1          14.8530    10.4270    28.9870 c          1 PA5       0.890600
      3 O1          15.2550    11.4550    28.4560 o          1 PA5      -0.877300
      4 C2          15.2620     9.6400    30.2750 c3         1 PA5       0.013100
      5 O2          14.5510     8.4270    30.6060 oh         1 PA5      -0.625800
      6 C3          16.7350     9.2390    29.9410 c3         1 PA5       0.127100
      7 O3          16.7520     8.3060    28.8820 oh         1 PA5      -0.643800
      8 C4          17.3870     8.4810    31.1480 c3         1 PA5       0.099100
      9 O4          17.3890     9.4260    32.2260 oh         1 PA5      -0.673800
     10 C5          18.8390     8.1100    30.7400 c3         1 PA5       0.174400
     11 O5          19.4830     9.4260    30.4310 os         1 PA5      -0.580200
     12 P           21.0060     9.1200    29.9410 p5         1 PA5       1.319900
     13 O1P         21.7690     8.3250    31.0230 o          1 PA5      -0.933167
     14 O2P         20.9980     8.2320    28.7070 o          1 PA5      -0.933167
     15 O3P         21.6260    10.4930    29.6350 o          1 PA5      -0.933167
     16 H1          15.2110    10.3140    31.1430 h1         1 PA5       0.050700
     17 H2          13.6480     8.6370    30.8150 ho         1 PA5       0.408000
     18 H3          17.3160    10.1370    29.6830 h1         1 PA5       0.048700
     19 H4          17.6490     8.0540    28.6980 ho         1 PA5       0.442000
     20 H5          16.8190     7.5780    31.4160 h1         1 PA5       0.002700
     21 H6          17.8430    10.2150    31.9530 ho         1 PA5       0.482000
     22 H7          18.8400     7.4580    29.8540 h1         1 PA5       0.009200
     23 H8          19.3600     7.6060    31.5670 h1         1 PA5       0.009200
@<TRIPOS>BOND
     1     1     2 1   
     2     2     4 1   
     3     2     3 1   
     4     4     6 1   
     5     4     5 1   
     6     6     8 1   
     7     6     7 1   
     8     8    10 1   
     9     8     9 1   
    10    10    11 1   
    11    11    12 1   
    12    12    15 1   
    13    12    14 1   
    14    12    13 1   
    15     4    16 1   
    16     5    17 1   
    17     6    18 1   
    18     7    19 1   
    19     8    20 1   
    20     9    21 1   
    21    10    22 1   
    22    10    23 1   
@<TRIPOS>SUBSTRUCTURE
     1 PA5         1 TEMP              0 ****  ****    0 ROOT
