@<TRIPOS>MOLECULE
1dar_ligand
   40    42     1     0     0
SMALL
bcc


@<TRIPOS>ATOM
      1 PB          35.7410    31.4950   -20.3320 p5         1 GDP       1.392900
      2 O1B         35.3560    30.9410   -19.0810 o          1 GDP      -0.890500
      3 O2B         34.9090    32.8600   -20.2240 o          1 GDP      -0.890500
      4 O3B         37.2680    32.1210   -20.2260 o          1 GDP      -0.890500
      5 O3A         35.7000    30.2100   -21.1350 os         1 GDP      -0.736800
      6 PA          34.8250    29.0000   -20.7480 p5         1 GDP       1.649800
      7 O1A         35.1090    27.8550   -21.6280 o          1 GDP      -0.708500
      8 O2A         33.3410    29.4680   -21.1300 o          1 GDP      -0.708500
      9 O5          35.0240    28.4330   -19.3460 os         1 GDP      -0.609200
     10 C5          36.2230    27.7480   -19.0200 c3         1 GDP       0.238400
     11 C4          36.0010    26.3540   -18.3910 c5         1 GDP       0.210100
     12 O4          34.8460    26.4250   -17.4920 os         1 GDP      -0.461600
     13 C3          35.5630    25.2440   -19.3540 c5         1 GDP      -0.468900
     14 O3          36.1290    24.0060   -18.9520 oh         1 GDP      -0.598800
     15 C2          34.0860    25.0510   -19.2280 c5         1 GDP       0.230100
     16 O2          33.9030    23.6980   -19.7550 oh         1 GDP      -0.655800
     17 C1          33.8870    25.3170   -17.6850 c5         1 GDP       0.192800
     18 N9          32.4850    25.7790   -17.3580 na         1 GDP      -0.137900
     19 C8          31.7450    26.8440   -17.8090 cc         1 GDP       0.499400
     20 N7          30.5160    26.8870   -17.4130 nd         1 GDP      -0.666000
     21 C7          30.4760    25.7440   -16.6330 cd         1 GDP       0.215800
     22 C6          29.4180    25.2200   -15.8950 c          1 GDP       0.634000
     23 O6          28.2430    25.5910   -15.8340 o          1 GDP      -0.690500
     24 N1          29.8050    24.1250   -15.2310 ns         1 GDP      -0.485400
     25 C10         31.0300    23.5810   -15.2490 cd         1 GDP       0.505800
     26 N2          31.2110    22.5370   -14.4460 nv         1 GDP      -0.859800
     27 N3          32.0300    24.0360   -15.9430 nc         1 GDP      -0.577100
     28 C9          31.6650    25.1070   -16.5990 cc         1 GDP      -0.012200
     29 H1          36.7890    28.3630   -18.3050 h1         1 GDP      -0.012300
     30 H2          36.8100    27.6220   -19.9410 h1         1 GDP      -0.012300
     31 H3          36.9160    26.0550   -17.8580 h1         1 GDP      -0.011300
     32 H4          35.8490    25.4960   -20.3860 h1         1 GDP       0.228700
     33 H5          35.8540    23.3230   -19.5530 ho         1 GDP       0.352000
     34 H6          33.4920    25.7660   -19.8160 h1         1 GDP       0.067700
     35 H7          34.4030    23.0840   -19.2300 ho         1 GDP       0.394000
     36 H8          34.1410    24.4340   -17.0800 h2         1 GDP       0.039700
     37 H9          32.1690    27.6060   -18.4610 h5         1 GDP       0.210100
     38 H10         29.1150    23.6690   -14.6680 hn         1 GDP       0.308500
     39 H11         32.1280    22.0690   -14.4090 hn         1 GDP       0.357300
     40 H12         30.4340    22.1960   -13.8610 hn         1 GDP       0.357300
@<TRIPOS>BOND
     1     1     2 1   
     2     1     3 1   
     3     1     4 1   
     4     1     5 1   
     5     5     6 1   
     6     6     7 1   
     7     6     8 1   
     8     6     9 1   
     9     9    10 1   
    10    10    11 1   
    11    11    12 1   
    12    11    13 1   
    13    12    17 1   
    14    13    14 1   
    15    13    15 1   
    16    15    16 1   
    17    15    17 1   
    18    17    18 1   
    19    18    19 1   
    20    18    28 1   
    21    19    20 2   
    22    20    21 1   
    23    21    22 1   
    24    21    28 2   
    25    22    23 2   
    26    22    24 1   
    27    24    25 1   
    28    25    26 1   
    29    25    27 2   
    30    27    28 1   
    31    10    29 1   
    32    10    30 1   
    33    11    31 1   
    34    13    32 1   
    35    14    33 1   
    36    15    34 1   
    37    16    35 1   
    38    17    36 1   
    39    19    37 1   
    40    24    38 1   
    41    26    39 1   
    42    26    40 1   
@<TRIPOS>SUBSTRUCTURE
     1 GDP         1 TEMP              0 ****  ****    0 ROOT
