@<TRIPOS>MOLECULE
1ew8_ligand
   10     9     1     0     0
SMALL
bcc


@<TRIPOS>ATOM
      1 P           74.0080    39.2080    42.7000 p5         1 PAE       1.224700
      2 O1P         74.5960    40.5810    43.0350 o          1 PAE      -0.973500
      3 O2P         72.7710    39.0640    43.5800 o          1 PAE      -0.973500
      4 O3P         73.6850    39.1140    41.2760 o          1 PAE      -0.973500
      5 C1P         75.2080    37.9270    43.2380 c3         1 PAE      -0.345600
      6 C1          74.8340    37.7000    44.7350 c          1 PAE       0.949600
      7 O1          74.1090    38.6240    45.1830 o          1 PAE      -0.960300
      8 O2          74.9690    36.5800    45.2080 o          1 PAE      -0.960300
      9 H1          76.2420    38.2880    43.1400 hc         1 PAE       0.005700
     10 H2          75.0860    37.0020    42.6560 hc         1 PAE       0.005700
@<TRIPOS>BOND
     1     1     2 1   
     2     1     3 1   
     3     1     4 1   
     4     1     5 1   
     5     5     6 1   
     6     6     7 1   
     7     6     8 1   
     8     5     9 1   
     9     5    10 1   
@<TRIPOS>SUBSTRUCTURE
     1 PAE         1 TEMP              0 ****  ****    0 ROOT
