@<TRIPOS>MOLECULE
1ajq_ligand
   14    14     1     0     0
SMALL
bcc


@<TRIPOS>ATOM
      1 S1          10.7570    34.9240    34.3440 ss         1 SPA       0.264200
      2 C2          11.8600    36.1590    33.8530 cc         1 SPA      -0.119400
      3 C3          11.4740    36.7610    32.6620 cd         1 SPA      -0.207000
      4 C4          10.3000    36.1760    32.1380 cd         1 SPA      -0.190000
      5 C5           9.7890    35.2230    32.9520 cc         1 SPA      -0.327100
      6 C6          13.0850    36.5220    34.6440 c3         1 SPA      -0.131100
      7 C7          12.7140    37.8140    35.4420 c          1 SPA       0.903600
      8 O1          12.0650    38.7630    35.0850 o          1 SPA      -0.818300
      9 O2          13.5080    37.7870    36.5060 o          1 SPA      -0.818300
     10 H1          12.0110    37.5830    32.1900 ha         1 SPA       0.119000
     11 H2           9.8550    36.4600    31.1850 ha         1 SPA       0.106000
     12 H3           8.8580    34.6970    32.7470 h4         1 SPA       0.128000
     13 H4          13.9310    36.7190    33.9690 hc         1 SPA       0.044700
     14 H5          13.3490    35.7080    35.3350 hc         1 SPA       0.044700
@<TRIPOS>BOND
     1     1     5 1   
     2     1     2 1   
     3     2     6 1   
     4     2     3 2   
     5     3     4 1   
     6     4     5 2   
     7     6     7 1   
     8     7     9 1   
     9     7     8 1   
    10     3    10 1   
    11     4    11 1   
    12     5    12 1   
    13     6    13 1   
    14     6    14 1   
@<TRIPOS>SUBSTRUCTURE
     1 SPA         1 TEMP              0 ****  ****    0 ROOT
