@<TRIPOS>MOLECULE
1gpk_ligand
   37    39     1     0     0
SMALL
bcc


@<TRIPOS>ATOM
      1 C1           0.7260    68.8480    60.5950 c          1 HUP       0.685700
      2 O1           0.2650    69.3310    59.5260 o          1 HUP      -0.564500
      3 N1           2.0070    68.2910    60.6140 ns         1 HUP      -0.432100
      4 C2           0.0030    68.8250    61.8590 cc         1 HUP      -0.214200
      5 C3           0.5760    68.2720    62.9860 cd         1 HUP      -0.068000
      6 C4           1.9080    67.6940    62.9880 cd         1 HUP      -0.311200
      7 C5           2.6240    67.7230    61.7490 cc         1 HUP       0.168400
      8 C6           4.0170    67.1690    61.5600 c6         1 HUP      -0.066200
      9 C7           4.6570    66.5980    62.9020 c6         1 HUP       0.019700
     10 C8           5.3760    67.6940    63.7160 c2         1 HUP      -0.170200
     11 C9           4.3520    63.5530    63.7420 c3         1 HUP      -0.082900
     12 C10          3.4630    64.6910    64.1430 c2         1 HUP      -0.111200
     13 C11          3.5630    65.9670    63.7940 c2         1 HUP      -0.178400
     14 C12          2.5690    67.0470    64.2830 c6         1 HUP       0.288600
     15 N2           1.5080    66.4560    65.1460 nz         1 HUP      -0.848600
     16 C13          3.3210    68.1300    65.1110 c6         1 HUP      -0.053200
     17 C14          4.7650    68.3870    64.7180 c2         1 HUP      -0.090400
     18 C15          5.4530    69.4590    65.5360 c3         1 HUP      -0.068900
     19 H1           2.5260    68.2950    59.7590 hn         1 HUP       0.350500
     20 H2          -0.9990    69.2480    61.9150 ha         1 HUP       0.186000
     21 H3           0.0050    68.2690    63.9130 ha         1 HUP       0.122000
     22 H4           4.6640    67.9730    61.1800 hc         1 HUP       0.090700
     23 H5           3.9710    66.3550    60.8210 hc         1 HUP       0.090700
     24 H6           5.3900    65.8230    62.6320 hc         1 HUP       0.096700
     25 H7           6.4140    67.9230    63.4800 ha         1 HUP       0.157000
     26 H8           3.9900    62.6240    64.2070 hc         1 HUP       0.068700
     27 H9           5.3800    63.7550    64.0780 hc         1 HUP       0.068700
     28 H10          4.3380    63.4450    62.6470 hc         1 HUP       0.068700
     29 H11          2.6330    64.4400    64.8020 ha         1 HUP       0.105000
     30 H12          0.8770    67.1820    65.4480 hn         1 HUP       0.455133
     31 H13          1.9320    66.0230    65.9510 hn         1 HUP       0.455133
     32 H14          0.9960    65.7630    64.6230 hn         1 HUP       0.455133
     33 H15          3.3100    67.8150    66.1650 hc         1 HUP       0.071700
     34 H16          2.7700    69.0760    65.0050 hc         1 HUP       0.071700
     35 H17          6.4890    69.5790    65.1860 hc         1 HUP       0.060700
     36 H18          5.4560    69.1660    66.5960 hc         1 HUP       0.060700
     37 H19          4.9140    70.4110    65.4200 hc         1 HUP       0.060700
@<TRIPOS>BOND
     1     4     1 1   
     2     1     3 1   
     3     1     2 2   
     4     3     7 1   
     5     7     8 1   
     6     7     6 2   
     7     6    14 1   
     8     6     5 1   
     9     5     4 2   
    10    14    16 1   
    11    14    15 1   
    12    14    13 1   
    13    13    12 2   
    14    13     9 1   
    15     9    10 1   
    16     9     8 1   
    17    10    17 2   
    18    17    18 1   
    19    16    17 1   
    20    12    11 1   
    21     3    19 1   
    22     4    20 1   
    23     5    21 1   
    24     8    22 1   
    25     8    23 1   
    26     9    24 1   
    27    10    25 1   
    28    11    26 1   
    29    11    27 1   
    30    11    28 1   
    31    12    29 1   
    32    15    30 1   
    33    15    31 1   
    34    15    32 1   
    35    16    33 1   
    36    16    34 1   
    37    18    35 1   
    38    18    36 1   
    39    18    37 1   
@<TRIPOS>SUBSTRUCTURE
     1 HUP         1 TEMP              0 ****  ****    0 ROOT
