@<TRIPOS>MOLECULE
1dy4_ligand
   39    41     1     0     0
SMALL
bcc


@<TRIPOS>ATOM
      1 C1          24.3160    54.8910    90.5540 ca         1 SNP       0.079100
      2 C2          23.9770    54.1950    91.7520 ca         1 SNP      -0.167000
      3 C3          22.6480    53.7560    92.0320 ca         1 SNP      -0.116000
      4 C4          21.6110    54.0220    91.0850 ca         1 SNP      -0.100000
      5 C5          20.8780    54.9610    88.9690 ca         1 SNP      -0.112000
      6 C6          21.1500    55.6570    87.7500 ca         1 SNP      -0.112000
      7 C7          22.4810    56.0950    87.4710 ca         1 SNP      -0.112000
      8 C8          23.5190    55.8280    88.4210 ca         1 SNP      -0.119000
      9 C9          23.2560    55.1400    89.6330 ca         1 SNP      -0.034000
     10 C10         21.9120    54.7070    89.8930 ca         1 SNP      -0.026000
     11 O1          25.5940    55.3310    90.2450 os         1 SNP      -0.369900
     12 C11         26.4520    55.8300    91.2610 c3         1 SNP       0.096400
     13 C12         27.6980    56.4180    90.5970 c3         1 SNP       0.109100
     14 O2          28.4170    55.3760    89.9660 oh         1 SNP      -0.614800
     15 C13         27.3520    57.4830    89.5430 c3         1 SNP       0.067800
     16 N1          28.3890    58.4990    89.5320 ny         1 SNP      -0.720000
     17 C14         28.3430    59.3960    88.3940 cx         1 SNP      -0.007500
     18 C15         29.2470    58.8190    87.2860 cx         1 SNP      -0.099400
     19 C16         28.8230    60.8130    88.7670 cx         1 SNP      -0.099400
     20 H1          24.7570    53.9920    92.4770 ha         1 SNP       0.133000
     21 H2          22.4280    53.2270    92.9520 ha         1 SNP       0.148000
     22 H3          20.5960    53.6970    91.2840 ha         1 SNP       0.150000
     23 H4          19.8700    54.6260    89.1840 ha         1 SNP       0.147000
     24 H5          20.3520    55.8510    87.0430 ha         1 SNP       0.147000
     25 H6          22.7030    56.6230    86.5510 ha         1 SNP       0.142000
     26 H7          24.5290    56.1590    88.2090 ha         1 SNP       0.133000
     27 H8          26.7420    55.0120    91.9360 h1         1 SNP       0.084700
     28 H9          25.9330    56.6120    91.8340 h1         1 SNP       0.084700
     29 H10         28.3270    56.8790    91.3730 h1         1 SNP       0.097700
     30 H11         29.1930    55.7340    89.5510 ho         1 SNP       0.447000
     31 H12         26.3860    57.9460    89.7920 hx         1 SNP       0.117200
     32 H13         27.2880    57.0120    88.5510 hx         1 SNP       0.117200
     33 H14         29.2840    58.0350    89.5310 hn         1 SNP       0.458300
     34 H15         28.2980    59.0500    90.3710 hn         1 SNP       0.458300
     35 H16         27.3080    59.4580    88.0270 hx         1 SNP       0.142700
     36 H17         28.9550    58.7790    86.2260 hc         1 SNP       0.112200
     37 H18         30.0420    58.0820    87.4750 hc         1 SNP       0.112200
     38 H19         29.4140    61.0340    89.6680 hc         1 SNP       0.112200
     39 H20         28.3280    61.7310    88.4190 hc         1 SNP       0.112200
@<TRIPOS>BOND
     1     2     1 ar  
     2     1     9 ar  
     3     1    11 1   
     4     3     2 ar  
     5     4     3 ar  
     6    10     4 ar  
     7     5     6 ar  
     8    10     5 ar  
     9     6     7 ar  
    10     7     8 ar  
    11     9     8 ar  
    12     9    10 ar  
    13    11    12 1   
    14    12    13 1   
    15    13    14 1   
    16    13    15 1   
    17    15    16 1   
    18    16    17 1   
    19    17    18 1   
    20    17    19 1   
    21    18    19 1   
    22     2    20 1   
    23     3    21 1   
    24     4    22 1   
    25     5    23 1   
    26     6    24 1   
    27     7    25 1   
    28     8    26 1   
    29    12    27 1   
    30    12    28 1   
    31    13    29 1   
    32    14    30 1   
    33    15    31 1   
    34    15    32 1   
    35    16    33 1   
    36    16    34 1   
    37    17    35 1   
    38    18    36 1   
    39    18    37 1   
    40    19    38 1   
    41    19    39 1   
@<TRIPOS>SUBSTRUCTURE
     1 SNP         1 TEMP              0 ****  ****    0 ROOT
