@<TRIPOS>MOLECULE
1gai_ligand
   90    93     1     0     0
SMALL
bcc


@<TRIPOS>ATOM
      1 C1A         33.1700    20.6220     8.1810 c6         1 GAC       0.117500
      2 C2A         34.3700    20.4820     9.1210 c6         1 GAC       0.131100
      3 C3A         33.9980    19.6160    10.3230 c6         1 GAC       0.111100
      4 C4A         32.9010    20.2890    11.1430 c6         1 GAC       0.105100
      5 C5A         31.6300    20.5140    10.3000 c6         1 GAC      -0.143700
      6 C6A         30.6120    21.3490    11.0820 c3         1 GAC       0.127400
      7 C7A         31.9480    21.1840     8.9340 c6         1 GAC      -0.105400
      8 O2A         35.4530    19.8790     8.4310 oh         1 GAC      -0.638800
      9 O3A         35.1440    19.4270    11.1420 oh         1 GAC      -0.598800
     10 O4A         32.5940    19.4740    12.2730 oh         1 GAC      -0.594800
     11 O6A         31.1270    22.6420    11.4010 oh         1 GAC      -0.584800
     12 C1B         31.7060    18.2700     3.5220 c6         1 GAC       0.327900
     13 C2B         33.1790    18.6150     3.7860 c6         1 GAC       0.134100
     14 C3B         33.4940    18.4450     5.2860 c6         1 GAC       0.088100
     15 C4B         32.5730    19.3810     6.0870 c6         1 GAC       0.062500
     16 C5B         31.1270    18.9380     5.7900 c6         1 GAC       0.121100
     17 C6B         30.0660    19.7720     6.4830 c3         1 GAC      -0.118100
     18 N4B         32.8760    19.3180     7.5360 ny         1 GAC      -0.754000
     19 O2B         34.0020    17.7370     3.0250 oh         1 GAC      -0.561800
     20 O3B         34.8640    18.7400     5.5420 oh         1 GAC      -0.607800
     21 O5B         30.8630    19.0490     4.3710 os         1 GAC      -0.417600
     22 C1C         30.7030    13.6000     1.4850 c6         1 GAC       0.291900
     23 C2C         30.3340    14.9210     0.8370 c6         1 GAC       0.090100
     24 C3C         30.9970    16.0810     1.5810 c6         1 GAC       0.092100
     25 C4C         30.7060    16.0130     3.0940 c6         1 GAC       0.133100
     26 C5C         30.9680    14.6110     3.6400 c6         1 GAC       0.098100
     27 C6C         30.5130    14.4420     5.0790 c3         1 GAC       0.136400
     28 O2C         30.7780    14.9220    -0.5120 oh         1 GAC      -0.586800
     29 O3C         30.4880    17.2900     1.0410 oh         1 GAC      -0.608800
     30 O4C         31.5750    16.9070     3.8240 os         1 GAC      -0.435600
     31 O5C         30.2990    13.6120     2.8470 os         1 GAC      -0.430600
     32 O6C         30.9640    13.2120     5.6190 oh         1 GAC      -0.635800
     33 C1D         34.8350    10.4330     0.5560 c6         1 GAC       0.290900
     34 C2D         34.1310    11.0140    -0.6720 c6         1 GAC       0.138100
     35 C3D         33.4850    12.3410    -0.2900 c6         1 GAC       0.090100
     36 C4D         32.5580    12.1440     0.9120 c6         1 GAC       0.079100
     37 C5D         33.3030    11.4710     2.0630 c6         1 GAC       0.107100
     38 C6D         32.3800    11.1360     3.2170 c3         1 GAC       0.141400
     39 O1D         35.7920    11.3290     1.0000 oh         1 GAC      -0.633800
     40 O2D         35.0700    11.2220    -1.7230 oh         1 GAC      -0.564800
     41 O3D         32.7480    12.8540    -1.3930 oh         1 GAC      -0.583800
     42 O4D         32.0860    13.4280     1.3530 os         1 GAC      -0.461600
     43 O5D         33.8920    10.2340     1.6170 os         1 GAC      -0.430600
     44 O6D         31.3310    10.2700     2.8020 oh         1 GAC      -0.615800
     45 H1          33.4350    21.3390     7.3900 hx         1 GAC       0.144700
     46 H2          34.6720    21.4800     9.4720 h1         1 GAC       0.101700
     47 H3          33.6370    18.6400     9.9670 h1         1 GAC       0.050700
     48 H4          33.2690    21.2650    11.4930 h1         1 GAC       0.067700
     49 H5          31.1820    19.5300    10.0960 hc         1 GAC       0.059700
     50 H6          30.3620    20.8240    12.0160 h1         1 GAC       0.064700
     51 H7          29.7040    21.4670    10.4730 h1         1 GAC       0.064700
     52 H8          31.0670    21.0640     8.2860 hc         1 GAC       0.096200
     53 H9          32.1260    22.2540     9.1160 hc         1 GAC       0.096200
     54 H10         36.1980    19.8060     9.0160 ho         1 GAC       0.466000
     55 H11         35.8290    19.0080    10.6340 ho         1 GAC       0.448000
     56 H12         31.9360    19.9070    12.8050 ho         1 GAC       0.424000
     57 H13         31.9090    22.5480    11.9320 ho         1 GAC       0.407000
     58 H14         31.4470    18.4580     2.4700 h2         1 GAC       0.149700
     59 H15         33.3730    19.6550     3.4870 h1         1 GAC       0.073700
     60 H16         33.2950    17.4040     5.5820 h1         1 GAC       0.097700
     61 H17         32.7150    20.4170     5.7450 hx         1 GAC       0.118700
     62 H18         31.0180    17.8900     6.1070 h1         1 GAC       0.101700
     63 H19         29.0690    19.3900     6.2180 hc         1 GAC       0.062700
     64 H20         30.1550    20.8200     6.1610 hc         1 GAC       0.062700
     65 H21         30.2050    19.7100     7.5720 hc         1 GAC       0.062700
     66 H22         32.0800    18.9120     8.0030 hn         1 GAC       0.455300
     67 H23         33.6790    18.7210     7.6600 hn         1 GAC       0.455300
     68 H24         34.9150    17.9450     3.1830 ho         1 GAC       0.425000
     69 H25         35.0430    18.6270     6.4680 ho         1 GAC       0.438000
     70 H26         30.1860    12.7780     0.9680 h2         1 GAC       0.124700
     71 H27         29.2420    15.0470     0.8650 h1         1 GAC       0.112700
     72 H28         32.0850    16.0380     1.4260 h1         1 GAC       0.070700
     73 H29         29.6560    16.2900     3.2680 h1         1 GAC       0.084700
     74 H30         32.0520    14.4310     3.5950 h1         1 GAC       0.077700
     75 H31         29.4140    14.4670     5.1130 h1         1 GAC       0.066200
     76 H32         30.9170    15.2680     5.6820 h1         1 GAC       0.066200
     77 H33         31.7220    14.8190    -0.5330 ho         1 GAC       0.418000
     78 H34         29.5490    17.3270     1.1810 ho         1 GAC       0.431000
     79 H35         31.9130    13.1870     5.5960 ho         1 GAC       0.435000
     80 H36         35.3080     9.4760     0.2920 h2         1 GAC       0.098700
     81 H37         33.3550    10.3130    -1.0130 h1         1 GAC       0.108700
     82 H38         34.2730    13.0590    -0.0200 h1         1 GAC       0.063700
     83 H39         31.7040    11.5170     0.6150 h1         1 GAC       0.082700
     84 H40         34.0930    12.1500     2.4160 h1         1 GAC       0.072700
     85 H41         31.9430    12.0660     3.6090 h1         1 GAC       0.058700
     86 H42         32.9610    10.6420     4.0090 h1         1 GAC       0.058700
     87 H43         36.2270    10.9720     1.7650 ho         1 GAC       0.429000
     88 H44         35.7420    11.8270    -1.4310 ho         1 GAC       0.418000
     89 H45         32.3630    13.6890    -1.1540 ho         1 GAC       0.415000
     90 H46         30.8230    10.6940     2.1200 ho         1 GAC       0.414000
@<TRIPOS>BOND
     1     1     2 1   
     2     1     7 1   
     3    18     1 1   
     4     2     3 1   
     5     2     8 1   
     6     3     4 1   
     7     3     9 1   
     8     5     4 1   
     9     4    10 1   
    10     5     6 1   
    11     7     5 1   
    12     6    11 1   
    13    12    13 1   
    14    12    21 1   
    15    30    12 1   
    16    13    14 1   
    17    13    19 1   
    18    14    15 1   
    19    14    20 1   
    20    16    15 1   
    21    15    18 1   
    22    16    17 1   
    23    21    16 1   
    24    22    23 1   
    25    22    31 1   
    26    42    22 1   
    27    23    24 1   
    28    23    28 1   
    29    24    25 1   
    30    24    29 1   
    31    26    25 1   
    32    25    30 1   
    33    26    27 1   
    34    31    26 1   
    35    27    32 1   
    36    34    33 1   
    37    33    39 1   
    38    33    43 1   
    39    35    34 1   
    40    34    40 1   
    41    36    35 1   
    42    35    41 1   
    43    36    37 1   
    44    36    42 1   
    45    37    38 1   
    46    37    43 1   
    47    38    44 1   
    48     1    45 1   
    49     2    46 1   
    50     3    47 1   
    51     4    48 1   
    52     5    49 1   
    53     6    50 1   
    54     6    51 1   
    55     7    52 1   
    56     7    53 1   
    57     8    54 1   
    58     9    55 1   
    59    10    56 1   
    60    11    57 1   
    61    12    58 1   
    62    13    59 1   
    63    14    60 1   
    64    15    61 1   
    65    16    62 1   
    66    17    63 1   
    67    17    64 1   
    68    17    65 1   
    69    18    66 1   
    70    18    67 1   
    71    19    68 1   
    72    20    69 1   
    73    22    70 1   
    74    23    71 1   
    75    24    72 1   
    76    25    73 1   
    77    26    74 1   
    78    27    75 1   
    79    27    76 1   
    80    28    77 1   
    81    29    78 1   
    82    32    79 1   
    83    33    80 1   
    84    34    81 1   
    85    35    82 1   
    86    36    83 1   
    87    37    84 1   
    88    38    85 1   
    89    38    86 1   
    90    39    87 1   
    91    40    88 1   
    92    41    89 1   
    93    44    90 1   
@<TRIPOS>SUBSTRUCTURE
     1 GAC         1 TEMP              0 ****  ****    0 ROOT
