@<TRIPOS>MOLECULE
1e66_ligand
   40    43     1     0     0
SMALL
bcc


@<TRIPOS>ATOM
      1 N1           5.9600    69.5810    65.3090 nb         1 HUX      -0.707000
      2 N2           1.8860    69.4300    66.4690 nv         1 HUX      -0.831200
      3 C1           6.3780    70.6350    68.8450 ca         1 HUX       0.029400
      4 C2           6.6700    70.2770    67.4340 ca         1 HUX      -0.170300
      5 C3           5.5690    69.9500    66.6660 ca         1 HUX       0.439600
      6 C4           4.9750    69.1980    64.4700 ca         1 HUX       0.487600
      7 C5           5.5190    68.7840    62.9970 c6         1 HUX      -0.126700
      8 C6           4.5270    67.8800    62.2460 c6         1 HUX      -0.030500
      9 C7           4.2820    66.4050    62.9960 c2         1 HUX      -0.166200
     10 C8           3.3050    66.0890    63.8490 c2         1 HUX      -0.109400
     11 C9           2.3030    67.1800    64.1500 c6         1 HUX      -0.039200
     12 C10          4.3940    63.6190    64.1310 c3         1 HUX      -0.092100
     13 C11          2.6210    68.6020    63.7090 c6         1 HUX      -0.005400
     14 C12          3.1710    68.5550    62.2170 c6         1 HUX      -0.070400
     15 C13          3.6230    69.1100    64.7520 ca         1 HUX      -0.266600
     16 C14          3.2280    69.5120    66.1460 ca         1 HUX       0.200600
     17 C15          4.2480    69.9120    67.0430 ca         1 HUX      -0.189300
     18 C16          3.9130    70.3030    68.4610 ca         1 HUX      -0.095000
     19 C17          4.9340    70.6300    69.2740 ca         1 HUX      -0.140000
     20 C18          3.2790    64.6360    64.4660 c3         1 HUX      -0.042200
     21 Cl1          7.5600    70.9960    69.9590 cl         1 HUX      -0.092400
     22 H1           1.2030    69.1300    65.7590 hn         1 HUX       0.404800
     23 H2           1.5690    69.6690    67.4200 hn         1 HUX       0.404800
     24 H3           7.6780    70.2720    67.0340 ha         1 HUX       0.165000
     25 H4           6.4730    68.2470    63.1090 hc         1 HUX       0.068700
     26 H5           5.6800    69.6990    62.4080 hc         1 HUX       0.068700
     27 H6           4.8970    67.7160    61.2230 hc         1 HUX       0.058700
     28 H7           4.9970    65.6170    62.7630 ha         1 HUX       0.128000
     29 H8           2.1650    67.2020    65.2410 hc         1 HUX       0.044200
     30 H9           1.3570    66.8940    63.6660 hc         1 HUX       0.044200
     31 H10          4.1960    62.6720    64.6550 hc         1 HUX       0.036033
     32 H11          5.3660    64.0210    64.4540 hc         1 HUX       0.036033
     33 H12          4.4130    63.4400    63.0460 hc         1 HUX       0.036033
     34 H13          1.7180    69.2300    63.7320 hc         1 HUX       0.053700
     35 H14          2.4810    67.9810    61.5810 hc         1 HUX       0.050200
     36 H15          3.2700    69.5770    61.8220 hc         1 HUX       0.050200
     37 H16          2.8880    70.3200    68.8120 ha         1 HUX       0.129000
     38 H17          4.7040    70.9060    70.2970 ha         1 HUX       0.148000
     39 H18          2.3300    64.1770    64.1510 hc         1 HUX       0.045700
     40 H19          3.2830    64.7580    65.5590 hc         1 HUX       0.045700
@<TRIPOS>BOND
     1     1     5 ar  
     2     1     6 ar  
     3     6    15 ar  
     4     6     7 1   
     5     7     8 1   
     6     8    14 1   
     7     8     9 1   
     8     9    10 2   
     9    10    20 1   
    10    10    11 1   
    11    11    13 1   
    12    13    15 1   
    13    13    14 1   
    14    15    16 ar  
    15    16     2 1   
    16    16    17 ar  
    17    17    18 ar  
    18    17     5 ar  
    19     5     4 ar  
    20     4     3 ar  
    21     3    19 ar  
    22    18    19 ar  
    23    20    12 1   
    24     3    21 1   
    25     2    22 1   
    26     2    23 1   
    27     4    24 1   
    28     7    25 1   
    29     7    26 1   
    30     8    27 1   
    31     9    28 1   
    32    11    29 1   
    33    11    30 1   
    34    12    31 1   
    35    12    32 1   
    36    12    33 1   
    37    13    34 1   
    38    14    35 1   
    39    14    36 1   
    40    18    37 1   
    41    19    38 1   
    42    20    39 1   
    43    20    40 1   
@<TRIPOS>SUBSTRUCTURE
     1 HUX         1 TEMP              0 ****  ****    0 ROOT
