@<TRIPOS>MOLECULE
1ew9_ligand
    9     8     1     0     0
SMALL
bcc


@<TRIPOS>ATOM
      1 S1          73.6670    39.0110    43.5090 sh         1 MMQ      -0.342900
      2 P           74.8050    37.0220    45.3710 p5         1 MMQ       1.188700
      3 O1P         75.9650    37.3180    46.3390 o          1 MMQ      -0.908833
      4 O2P         74.8140    35.5370    44.9980 o          1 MMQ      -0.908833
      5 O3P         73.5460    37.4230    45.9820 o          1 MMQ      -0.908833
      6 C1P         75.1110    37.9520    43.8360 c3         1 MMQ      -0.231500
      7 H1          73.8200    39.5340    42.6610 hs         1 MMQ       0.019800
      8 H2          76.0100    38.5750    43.9520 h1         1 MMQ       0.045700
      9 H3          75.2550    37.2520    43.0000 h1         1 MMQ       0.045700
@<TRIPOS>BOND
     1     6     1 1   
     2     2     3 1   
     3     2     4 1   
     4     2     5 1   
     5     2     6 1   
     6     1     7 1   
     7     6     8 1   
     8     6     9 1   
@<TRIPOS>SUBSTRUCTURE
     1 MMQ         1 TEMP              0 ****  ****    0 ROOT
